**************************************************
* OpenRAM generated memory.
* Words: 16
* Data bits: 8
* Banks: 1
* Column mux: 1:1
* Trimmed: True
* LVS: False
**************************************************
*********************** Write_Driver ******************************
.SUBCKT write_driver din bl br en vdd gnd

**** Inverter to conver Data_in to data_in_bar ******
* din_bar = inv(din)
M_1 din_bar din gnd gnd n W=0.8u L=0.4u
M_2 din_bar din vdd vdd p W=1.4u L=0.4u

**** 2input nand gate follwed by inverter to drive BL ******
* din_bar_gated = nand(en, din)
M_3 din_bar_gated en net_7 gnd n W=1.4u L=0.4u
M_4 net_7 din gnd gnd n W=1.4u L=0.4u
M_5 din_bar_gated en vdd vdd p W=1.4u L=0.4u
M_6 din_bar_gated din vdd vdd p W=1.4u L=0.4u
* din_bar_gated_bar = inv(din_bar_gated)
M_7 din_bar_gated_bar din_bar_gated vdd vdd p W=1.4u L=0.4u
M_8 din_bar_gated_bar din_bar_gated gnd gnd n W=0.8u L=0.4u

**** 2input nand gate follwed by inverter to drive BR******
* din_gated = nand(en, din_bar)
M_9 din_gated en vdd vdd p W=1.4u L=0.4u
M_10 din_gated en net_8 gnd n W=1.4u L=0.4u
M_11 net_8 din_bar gnd gnd n W=1.4u L=0.4u
M_12 din_gated din_bar vdd vdd p W=1.4u L=0.4u
* din_gated_bar = inv(din_gated)
M_13 din_gated_bar din_gated vdd vdd p W=1.4u L=0.4u
M_14 din_gated_bar din_gated gnd gnd n W=0.8u L=0.4u

************************************************
* pull down with en enable
M_15 bl din_gated_bar gnd gnd n W=2.4u L=0.4u
M_16 br din_bar_gated_bar gnd gnd n W=2.4u L=0.4u



.ENDS   $ write_driver

.SUBCKT RAM_Mem_write_driver_array
+ data_0 data_1 data_2 data_3 data_4 data_5 data_6 data_7 bl_0 br_0 bl_1
+ br_1 bl_2 br_2 bl_3 br_3 bl_4 br_4 bl_5 br_5 bl_6 br_6 bl_7 br_7 en
+ vdd gnd
* INPUT : data_0 
* INPUT : data_1 
* INPUT : data_2 
* INPUT : data_3 
* INPUT : data_4 
* INPUT : data_5 
* INPUT : data_6 
* INPUT : data_7 
* OUTPUT: bl_0 
* OUTPUT: br_0 
* OUTPUT: bl_1 
* OUTPUT: br_1 
* OUTPUT: bl_2 
* OUTPUT: br_2 
* OUTPUT: bl_3 
* OUTPUT: br_3 
* OUTPUT: bl_4 
* OUTPUT: br_4 
* OUTPUT: bl_5 
* OUTPUT: br_5 
* OUTPUT: bl_6 
* OUTPUT: br_6 
* OUTPUT: bl_7 
* OUTPUT: br_7 
* INPUT : en 
* POWER : vdd 
* GROUND: gnd 
* columns: 8
* word_size 8
Xwrite_driver0
+ data_0 bl_0 br_0 en vdd gnd
+ write_driver
Xwrite_driver1
+ data_1 bl_1 br_1 en vdd gnd
+ write_driver
Xwrite_driver2
+ data_2 bl_2 br_2 en vdd gnd
+ write_driver
Xwrite_driver3
+ data_3 bl_3 br_3 en vdd gnd
+ write_driver
Xwrite_driver4
+ data_4 bl_4 br_4 en vdd gnd
+ write_driver
Xwrite_driver5
+ data_5 bl_5 br_5 en vdd gnd
+ write_driver
Xwrite_driver6
+ data_6 bl_6 br_6 en vdd gnd
+ write_driver
Xwrite_driver7
+ data_7 bl_7 br_7 en vdd gnd
+ write_driver
.ENDS RAM_Mem_write_driver_array
*********************** "sense_amp" ******************************

.SUBCKT sense_amp bl br dout en vdd gnd

* SPICE3 file created from sense_amp.ext - technology: scmos

M1000 gnd en a_56_432# gnd n w=1.8u l=0.4u
M1001 a_56_432# a_48_304# dint gnd n w=1.8u l=0.4u
M1002 a_48_304# dint a_56_432# gnd n w=1.8u l=0.4u
M1003 vdd a_48_304# dint vdd p w=3.6u l=0.4u
M1004 a_48_304# dint vdd vdd p w=3.6u l=0.4u
M1005 bl en dint vdd p w=4.8u l=0.4u
M1006 a_48_304# en br vdd p w=4.8u l=0.4u

M1007 dout_bar dint vdd vdd p w=1.6u l=0.4u
M1008 gnd dint dout_bar gnd n w=0.8u l=0.4u
M1009 dout dout_bar vdd vdd p w=4.8u l=0.4u
M1010 gnd dout_bar dout gnd n w=2.4u l=0.4u
.ENDS

.SUBCKT RAM_Mem_sense_amp_array
+ data_0 bl_0 br_0 data_1 bl_1 br_1 data_2 bl_2 br_2 data_3 bl_3 br_3
+ data_4 bl_4 br_4 data_5 bl_5 br_5 data_6 bl_6 br_6 data_7 bl_7 br_7 en
+ vdd gnd
* OUTPUT: data_0 
* INPUT : bl_0 
* INPUT : br_0 
* OUTPUT: data_1 
* INPUT : bl_1 
* INPUT : br_1 
* OUTPUT: data_2 
* INPUT : bl_2 
* INPUT : br_2 
* OUTPUT: data_3 
* INPUT : bl_3 
* INPUT : br_3 
* OUTPUT: data_4 
* INPUT : bl_4 
* INPUT : br_4 
* OUTPUT: data_5 
* INPUT : bl_5 
* INPUT : br_5 
* OUTPUT: data_6 
* INPUT : bl_6 
* INPUT : br_6 
* OUTPUT: data_7 
* INPUT : bl_7 
* INPUT : br_7 
* INPUT : en 
* POWER : vdd 
* GROUND: gnd 
* word_size 8
* words_per_row: 1
Xsa_d0
+ bl_0 br_0 data_0 en vdd gnd
+ sense_amp
Xsa_d1
+ bl_1 br_1 data_1 en vdd gnd
+ sense_amp
Xsa_d2
+ bl_2 br_2 data_2 en vdd gnd
+ sense_amp
Xsa_d3
+ bl_3 br_3 data_3 en vdd gnd
+ sense_amp
Xsa_d4
+ bl_4 br_4 data_4 en vdd gnd
+ sense_amp
Xsa_d5
+ bl_5 br_5 data_5 en vdd gnd
+ sense_amp
Xsa_d6
+ bl_6 br_6 data_6 en vdd gnd
+ sense_amp
Xsa_d7
+ bl_7 br_7 data_7 en vdd gnd
+ sense_amp
.ENDS RAM_Mem_sense_amp_array

* spice ptx M{0} {1} p m=1 w=1.6u l=0.4u pd=4.00u ps=4.00u as=1.60p ad=1.60p

.SUBCKT RAM_Mem_precharge_0
+ bl br en_bar vdd
* OUTPUT: bl 
* OUTPUT: br 
* INPUT : en_bar 
* POWER : vdd 
Mlower_pmos bl en_bar br vdd p m=1 w=1.6u l=0.4u pd=4.00u ps=4.00u as=1.60p ad=1.60p
Mupper_pmos1 bl en_bar vdd vdd p m=1 w=1.6u l=0.4u pd=4.00u ps=4.00u as=1.60p ad=1.60p
Mupper_pmos2 br en_bar vdd vdd p m=1 w=1.6u l=0.4u pd=4.00u ps=4.00u as=1.60p ad=1.60p
.ENDS RAM_Mem_precharge_0

.SUBCKT RAM_Mem_precharge_array
+ bl_0 br_0 bl_1 br_1 bl_2 br_2 bl_3 br_3 bl_4 br_4 bl_5 br_5 bl_6 br_6
+ bl_7 br_7 bl_8 br_8 en_bar vdd
* OUTPUT: bl_0 
* OUTPUT: br_0 
* OUTPUT: bl_1 
* OUTPUT: br_1 
* OUTPUT: bl_2 
* OUTPUT: br_2 
* OUTPUT: bl_3 
* OUTPUT: br_3 
* OUTPUT: bl_4 
* OUTPUT: br_4 
* OUTPUT: bl_5 
* OUTPUT: br_5 
* OUTPUT: bl_6 
* OUTPUT: br_6 
* OUTPUT: bl_7 
* OUTPUT: br_7 
* OUTPUT: bl_8 
* OUTPUT: br_8 
* INPUT : en_bar 
* POWER : vdd 
* cols: 9 size: 1 bl: bl br: br
Xpre_column_0
+ bl_0 br_0 en_bar vdd
+ RAM_Mem_precharge_0
Xpre_column_1
+ bl_1 br_1 en_bar vdd
+ RAM_Mem_precharge_0
Xpre_column_2
+ bl_2 br_2 en_bar vdd
+ RAM_Mem_precharge_0
Xpre_column_3
+ bl_3 br_3 en_bar vdd
+ RAM_Mem_precharge_0
Xpre_column_4
+ bl_4 br_4 en_bar vdd
+ RAM_Mem_precharge_0
Xpre_column_5
+ bl_5 br_5 en_bar vdd
+ RAM_Mem_precharge_0
Xpre_column_6
+ bl_6 br_6 en_bar vdd
+ RAM_Mem_precharge_0
Xpre_column_7
+ bl_7 br_7 en_bar vdd
+ RAM_Mem_precharge_0
Xpre_column_8
+ bl_8 br_8 en_bar vdd
+ RAM_Mem_precharge_0
.ENDS RAM_Mem_precharge_array

.SUBCKT RAM_Mem_port_data
+ rbl_bl rbl_br bl_0 br_0 bl_1 br_1 bl_2 br_2 bl_3 br_3 bl_4 br_4 bl_5
+ br_5 bl_6 br_6 bl_7 br_7 dout_0 dout_1 dout_2 dout_3 dout_4 dout_5
+ dout_6 dout_7 din_0 din_1 din_2 din_3 din_4 din_5 din_6 din_7 s_en
+ p_en_bar w_en vdd gnd
* INOUT : rbl_bl 
* INOUT : rbl_br 
* INOUT : bl_0 
* INOUT : br_0 
* INOUT : bl_1 
* INOUT : br_1 
* INOUT : bl_2 
* INOUT : br_2 
* INOUT : bl_3 
* INOUT : br_3 
* INOUT : bl_4 
* INOUT : br_4 
* INOUT : bl_5 
* INOUT : br_5 
* INOUT : bl_6 
* INOUT : br_6 
* INOUT : bl_7 
* INOUT : br_7 
* OUTPUT: dout_0 
* OUTPUT: dout_1 
* OUTPUT: dout_2 
* OUTPUT: dout_3 
* OUTPUT: dout_4 
* OUTPUT: dout_5 
* OUTPUT: dout_6 
* OUTPUT: dout_7 
* INPUT : din_0 
* INPUT : din_1 
* INPUT : din_2 
* INPUT : din_3 
* INPUT : din_4 
* INPUT : din_5 
* INPUT : din_6 
* INPUT : din_7 
* INPUT : s_en 
* INPUT : p_en_bar 
* INPUT : w_en 
* POWER : vdd 
* GROUND: gnd 
Xprecharge_array0
+ rbl_bl rbl_br bl_0 br_0 bl_1 br_1 bl_2 br_2 bl_3 br_3 bl_4 br_4 bl_5
+ br_5 bl_6 br_6 bl_7 br_7 p_en_bar vdd
+ RAM_Mem_precharge_array
Xsense_amp_array0
+ dout_0 bl_0 br_0 dout_1 bl_1 br_1 dout_2 bl_2 br_2 dout_3 bl_3 br_3
+ dout_4 bl_4 br_4 dout_5 bl_5 br_5 dout_6 bl_6 br_6 dout_7 bl_7 br_7
+ s_en vdd gnd
+ RAM_Mem_sense_amp_array
Xwrite_driver_array0
+ din_0 din_1 din_2 din_3 din_4 din_5 din_6 din_7 bl_0 br_0 bl_1 br_1
+ bl_2 br_2 bl_3 br_3 bl_4 br_4 bl_5 br_5 bl_6 br_6 bl_7 br_7 w_en vdd
+ gnd
+ RAM_Mem_write_driver_array
.ENDS RAM_Mem_port_data

*********************** "dummy_cell_1rw" ******************************
.SUBCKT dummy_cell_1rw bl br wl vdd gnd

* Inverter 1
M1000 Q Q_bar vdd vdd p w=0.6u l=0.8u
M1002 Q Q_bar gnd gnd n w=1.6u l=0.4u

* Inverter 2
M1001 vdd Q Q_bar vdd p w=0.6u l=0.8u
M1003 gnd Q Q_bar gnd n w=1.6u l=0.4u

* Access transistors
M1004 Q wl bl_noconn gnd n w=0.8u l=0.4u
M1005 Q_bar wl br_noconn gnd n w=0.8u l=0.4u

.ENDS

.SUBCKT RAM_Mem_dummy_array_1
+ bl_0_0 br_0_0 bl_0_1 br_0_1 bl_0_2 br_0_2 bl_0_3 br_0_3 bl_0_4 br_0_4
+ bl_0_5 br_0_5 bl_0_6 br_0_6 bl_0_7 br_0_7 bl_0_8 br_0_8 wl_0_0 vdd gnd
* INOUT : bl_0_0 
* INOUT : br_0_0 
* INOUT : bl_0_1 
* INOUT : br_0_1 
* INOUT : bl_0_2 
* INOUT : br_0_2 
* INOUT : bl_0_3 
* INOUT : br_0_3 
* INOUT : bl_0_4 
* INOUT : br_0_4 
* INOUT : bl_0_5 
* INOUT : br_0_5 
* INOUT : bl_0_6 
* INOUT : br_0_6 
* INOUT : bl_0_7 
* INOUT : br_0_7 
* INOUT : bl_0_8 
* INOUT : br_0_8 
* INPUT : wl_0_0 
* POWER : vdd 
* GROUND: gnd 
Xbit_r0_c0
+ bl_0_0 br_0_0 wl_0_0 vdd gnd
+ dummy_cell_1rw
Xbit_r0_c1
+ bl_0_1 br_0_1 wl_0_0 vdd gnd
+ dummy_cell_1rw
Xbit_r0_c2
+ bl_0_2 br_0_2 wl_0_0 vdd gnd
+ dummy_cell_1rw
Xbit_r0_c3
+ bl_0_3 br_0_3 wl_0_0 vdd gnd
+ dummy_cell_1rw
Xbit_r0_c4
+ bl_0_4 br_0_4 wl_0_0 vdd gnd
+ dummy_cell_1rw
Xbit_r0_c5
+ bl_0_5 br_0_5 wl_0_0 vdd gnd
+ dummy_cell_1rw
Xbit_r0_c6
+ bl_0_6 br_0_6 wl_0_0 vdd gnd
+ dummy_cell_1rw
Xbit_r0_c7
+ bl_0_7 br_0_7 wl_0_0 vdd gnd
+ dummy_cell_1rw
Xbit_r0_c8
+ bl_0_8 br_0_8 wl_0_0 vdd gnd
+ dummy_cell_1rw
.ENDS RAM_Mem_dummy_array_1

*********************** "cell_1rw" ******************************
.SUBCKT cell_1rw bl br wl vdd gnd
* SPICE3 file created from cell_1rw.ext - technology: scmos

* Inverter 1
M1000 Q Q_bar vdd vdd p w=0.6u l=0.8u
M1002 Q Q_bar gnd gnd n w=1.6u l=0.4u

* Inverter 2
M1001 vdd Q Q_bar vdd p w=0.6u l=0.8u
M1003 gnd Q Q_bar gnd n w=1.6u l=0.4u

* Access transistors
M1004 Q wl bl gnd n w=0.8u l=0.4u
M1005 Q_bar wl br gnd n w=0.8u l=0.4u

.ENDS

.SUBCKT RAM_Mem_bitcell_array
+ bl_0_0 br_0_0 bl_0_1 br_0_1 bl_0_2 br_0_2 bl_0_3 br_0_3 bl_0_4 br_0_4
+ bl_0_5 br_0_5 bl_0_6 br_0_6 bl_0_7 br_0_7 wl_0_0 wl_0_1 wl_0_2 wl_0_3
+ wl_0_4 wl_0_5 wl_0_6 wl_0_7 wl_0_8 wl_0_9 wl_0_10 wl_0_11 wl_0_12
+ wl_0_13 wl_0_14 wl_0_15 vdd gnd
* INOUT : bl_0_0 
* INOUT : br_0_0 
* INOUT : bl_0_1 
* INOUT : br_0_1 
* INOUT : bl_0_2 
* INOUT : br_0_2 
* INOUT : bl_0_3 
* INOUT : br_0_3 
* INOUT : bl_0_4 
* INOUT : br_0_4 
* INOUT : bl_0_5 
* INOUT : br_0_5 
* INOUT : bl_0_6 
* INOUT : br_0_6 
* INOUT : bl_0_7 
* INOUT : br_0_7 
* INPUT : wl_0_0 
* INPUT : wl_0_1 
* INPUT : wl_0_2 
* INPUT : wl_0_3 
* INPUT : wl_0_4 
* INPUT : wl_0_5 
* INPUT : wl_0_6 
* INPUT : wl_0_7 
* INPUT : wl_0_8 
* INPUT : wl_0_9 
* INPUT : wl_0_10 
* INPUT : wl_0_11 
* INPUT : wl_0_12 
* INPUT : wl_0_13 
* INPUT : wl_0_14 
* INPUT : wl_0_15 
* POWER : vdd 
* GROUND: gnd 
* rows: 16 cols: 8
Xbit_r0_c0
+ bl_0_0 br_0_0 wl_0_0 vdd gnd
+ cell_1rw
Xbit_r1_c0
+ bl_0_0 br_0_0 wl_0_1 vdd gnd
+ cell_1rw
Xbit_r2_c0
+ bl_0_0 br_0_0 wl_0_2 vdd gnd
+ cell_1rw
Xbit_r3_c0
+ bl_0_0 br_0_0 wl_0_3 vdd gnd
+ cell_1rw
Xbit_r4_c0
+ bl_0_0 br_0_0 wl_0_4 vdd gnd
+ cell_1rw
Xbit_r5_c0
+ bl_0_0 br_0_0 wl_0_5 vdd gnd
+ cell_1rw
Xbit_r6_c0
+ bl_0_0 br_0_0 wl_0_6 vdd gnd
+ cell_1rw
Xbit_r7_c0
+ bl_0_0 br_0_0 wl_0_7 vdd gnd
+ cell_1rw
Xbit_r8_c0
+ bl_0_0 br_0_0 wl_0_8 vdd gnd
+ cell_1rw
Xbit_r9_c0
+ bl_0_0 br_0_0 wl_0_9 vdd gnd
+ cell_1rw
Xbit_r10_c0
+ bl_0_0 br_0_0 wl_0_10 vdd gnd
+ cell_1rw
Xbit_r11_c0
+ bl_0_0 br_0_0 wl_0_11 vdd gnd
+ cell_1rw
Xbit_r12_c0
+ bl_0_0 br_0_0 wl_0_12 vdd gnd
+ cell_1rw
Xbit_r13_c0
+ bl_0_0 br_0_0 wl_0_13 vdd gnd
+ cell_1rw
Xbit_r14_c0
+ bl_0_0 br_0_0 wl_0_14 vdd gnd
+ cell_1rw
Xbit_r15_c0
+ bl_0_0 br_0_0 wl_0_15 vdd gnd
+ cell_1rw
Xbit_r0_c1
+ bl_0_1 br_0_1 wl_0_0 vdd gnd
+ cell_1rw
* Xbit_r1_c1
*+ bl_0_1 br_0_1 wl_0_1 vdd gnd
*+ cell_1rw
* Xbit_r2_c1
*+ bl_0_1 br_0_1 wl_0_2 vdd gnd
*+ cell_1rw
* Xbit_r3_c1
*+ bl_0_1 br_0_1 wl_0_3 vdd gnd
*+ cell_1rw
* Xbit_r4_c1
*+ bl_0_1 br_0_1 wl_0_4 vdd gnd
*+ cell_1rw
* Xbit_r5_c1
*+ bl_0_1 br_0_1 wl_0_5 vdd gnd
*+ cell_1rw
* Xbit_r6_c1
*+ bl_0_1 br_0_1 wl_0_6 vdd gnd
*+ cell_1rw
* Xbit_r7_c1
*+ bl_0_1 br_0_1 wl_0_7 vdd gnd
*+ cell_1rw
* Xbit_r8_c1
*+ bl_0_1 br_0_1 wl_0_8 vdd gnd
*+ cell_1rw
* Xbit_r9_c1
*+ bl_0_1 br_0_1 wl_0_9 vdd gnd
*+ cell_1rw
* Xbit_r10_c1
*+ bl_0_1 br_0_1 wl_0_10 vdd gnd
*+ cell_1rw
* Xbit_r11_c1
*+ bl_0_1 br_0_1 wl_0_11 vdd gnd
*+ cell_1rw
* Xbit_r12_c1
*+ bl_0_1 br_0_1 wl_0_12 vdd gnd
*+ cell_1rw
* Xbit_r13_c1
*+ bl_0_1 br_0_1 wl_0_13 vdd gnd
*+ cell_1rw
* Xbit_r14_c1
*+ bl_0_1 br_0_1 wl_0_14 vdd gnd
*+ cell_1rw
Xbit_r15_c1
+ bl_0_1 br_0_1 wl_0_15 vdd gnd
+ cell_1rw
Xbit_r0_c2
+ bl_0_2 br_0_2 wl_0_0 vdd gnd
+ cell_1rw
* Xbit_r1_c2
*+ bl_0_2 br_0_2 wl_0_1 vdd gnd
*+ cell_1rw
* Xbit_r2_c2
*+ bl_0_2 br_0_2 wl_0_2 vdd gnd
*+ cell_1rw
* Xbit_r3_c2
*+ bl_0_2 br_0_2 wl_0_3 vdd gnd
*+ cell_1rw
* Xbit_r4_c2
*+ bl_0_2 br_0_2 wl_0_4 vdd gnd
*+ cell_1rw
* Xbit_r5_c2
*+ bl_0_2 br_0_2 wl_0_5 vdd gnd
*+ cell_1rw
* Xbit_r6_c2
*+ bl_0_2 br_0_2 wl_0_6 vdd gnd
*+ cell_1rw
* Xbit_r7_c2
*+ bl_0_2 br_0_2 wl_0_7 vdd gnd
*+ cell_1rw
* Xbit_r8_c2
*+ bl_0_2 br_0_2 wl_0_8 vdd gnd
*+ cell_1rw
* Xbit_r9_c2
*+ bl_0_2 br_0_2 wl_0_9 vdd gnd
*+ cell_1rw
* Xbit_r10_c2
*+ bl_0_2 br_0_2 wl_0_10 vdd gnd
*+ cell_1rw
* Xbit_r11_c2
*+ bl_0_2 br_0_2 wl_0_11 vdd gnd
*+ cell_1rw
* Xbit_r12_c2
*+ bl_0_2 br_0_2 wl_0_12 vdd gnd
*+ cell_1rw
* Xbit_r13_c2
*+ bl_0_2 br_0_2 wl_0_13 vdd gnd
*+ cell_1rw
* Xbit_r14_c2
*+ bl_0_2 br_0_2 wl_0_14 vdd gnd
*+ cell_1rw
Xbit_r15_c2
+ bl_0_2 br_0_2 wl_0_15 vdd gnd
+ cell_1rw
Xbit_r0_c3
+ bl_0_3 br_0_3 wl_0_0 vdd gnd
+ cell_1rw
* Xbit_r1_c3
*+ bl_0_3 br_0_3 wl_0_1 vdd gnd
*+ cell_1rw
* Xbit_r2_c3
*+ bl_0_3 br_0_3 wl_0_2 vdd gnd
*+ cell_1rw
* Xbit_r3_c3
*+ bl_0_3 br_0_3 wl_0_3 vdd gnd
*+ cell_1rw
* Xbit_r4_c3
*+ bl_0_3 br_0_3 wl_0_4 vdd gnd
*+ cell_1rw
* Xbit_r5_c3
*+ bl_0_3 br_0_3 wl_0_5 vdd gnd
*+ cell_1rw
* Xbit_r6_c3
*+ bl_0_3 br_0_3 wl_0_6 vdd gnd
*+ cell_1rw
* Xbit_r7_c3
*+ bl_0_3 br_0_3 wl_0_7 vdd gnd
*+ cell_1rw
* Xbit_r8_c3
*+ bl_0_3 br_0_3 wl_0_8 vdd gnd
*+ cell_1rw
* Xbit_r9_c3
*+ bl_0_3 br_0_3 wl_0_9 vdd gnd
*+ cell_1rw
* Xbit_r10_c3
*+ bl_0_3 br_0_3 wl_0_10 vdd gnd
*+ cell_1rw
* Xbit_r11_c3
*+ bl_0_3 br_0_3 wl_0_11 vdd gnd
*+ cell_1rw
* Xbit_r12_c3
*+ bl_0_3 br_0_3 wl_0_12 vdd gnd
*+ cell_1rw
* Xbit_r13_c3
*+ bl_0_3 br_0_3 wl_0_13 vdd gnd
*+ cell_1rw
* Xbit_r14_c3
*+ bl_0_3 br_0_3 wl_0_14 vdd gnd
*+ cell_1rw
Xbit_r15_c3
+ bl_0_3 br_0_3 wl_0_15 vdd gnd
+ cell_1rw
Xbit_r0_c4
+ bl_0_4 br_0_4 wl_0_0 vdd gnd
+ cell_1rw
* Xbit_r1_c4
*+ bl_0_4 br_0_4 wl_0_1 vdd gnd
*+ cell_1rw
* Xbit_r2_c4
*+ bl_0_4 br_0_4 wl_0_2 vdd gnd
*+ cell_1rw
* Xbit_r3_c4
*+ bl_0_4 br_0_4 wl_0_3 vdd gnd
*+ cell_1rw
* Xbit_r4_c4
*+ bl_0_4 br_0_4 wl_0_4 vdd gnd
*+ cell_1rw
* Xbit_r5_c4
*+ bl_0_4 br_0_4 wl_0_5 vdd gnd
*+ cell_1rw
* Xbit_r6_c4
*+ bl_0_4 br_0_4 wl_0_6 vdd gnd
*+ cell_1rw
* Xbit_r7_c4
*+ bl_0_4 br_0_4 wl_0_7 vdd gnd
*+ cell_1rw
* Xbit_r8_c4
*+ bl_0_4 br_0_4 wl_0_8 vdd gnd
*+ cell_1rw
* Xbit_r9_c4
*+ bl_0_4 br_0_4 wl_0_9 vdd gnd
*+ cell_1rw
* Xbit_r10_c4
*+ bl_0_4 br_0_4 wl_0_10 vdd gnd
*+ cell_1rw
* Xbit_r11_c4
*+ bl_0_4 br_0_4 wl_0_11 vdd gnd
*+ cell_1rw
* Xbit_r12_c4
*+ bl_0_4 br_0_4 wl_0_12 vdd gnd
*+ cell_1rw
* Xbit_r13_c4
*+ bl_0_4 br_0_4 wl_0_13 vdd gnd
*+ cell_1rw
* Xbit_r14_c4
*+ bl_0_4 br_0_4 wl_0_14 vdd gnd
*+ cell_1rw
Xbit_r15_c4
+ bl_0_4 br_0_4 wl_0_15 vdd gnd
+ cell_1rw
Xbit_r0_c5
+ bl_0_5 br_0_5 wl_0_0 vdd gnd
+ cell_1rw
* Xbit_r1_c5
*+ bl_0_5 br_0_5 wl_0_1 vdd gnd
*+ cell_1rw
* Xbit_r2_c5
*+ bl_0_5 br_0_5 wl_0_2 vdd gnd
*+ cell_1rw
* Xbit_r3_c5
*+ bl_0_5 br_0_5 wl_0_3 vdd gnd
*+ cell_1rw
* Xbit_r4_c5
*+ bl_0_5 br_0_5 wl_0_4 vdd gnd
*+ cell_1rw
* Xbit_r5_c5
*+ bl_0_5 br_0_5 wl_0_5 vdd gnd
*+ cell_1rw
* Xbit_r6_c5
*+ bl_0_5 br_0_5 wl_0_6 vdd gnd
*+ cell_1rw
* Xbit_r7_c5
*+ bl_0_5 br_0_5 wl_0_7 vdd gnd
*+ cell_1rw
* Xbit_r8_c5
*+ bl_0_5 br_0_5 wl_0_8 vdd gnd
*+ cell_1rw
* Xbit_r9_c5
*+ bl_0_5 br_0_5 wl_0_9 vdd gnd
*+ cell_1rw
* Xbit_r10_c5
*+ bl_0_5 br_0_5 wl_0_10 vdd gnd
*+ cell_1rw
* Xbit_r11_c5
*+ bl_0_5 br_0_5 wl_0_11 vdd gnd
*+ cell_1rw
* Xbit_r12_c5
*+ bl_0_5 br_0_5 wl_0_12 vdd gnd
*+ cell_1rw
* Xbit_r13_c5
*+ bl_0_5 br_0_5 wl_0_13 vdd gnd
*+ cell_1rw
* Xbit_r14_c5
*+ bl_0_5 br_0_5 wl_0_14 vdd gnd
*+ cell_1rw
Xbit_r15_c5
+ bl_0_5 br_0_5 wl_0_15 vdd gnd
+ cell_1rw
Xbit_r0_c6
+ bl_0_6 br_0_6 wl_0_0 vdd gnd
+ cell_1rw
* Xbit_r1_c6
*+ bl_0_6 br_0_6 wl_0_1 vdd gnd
*+ cell_1rw
* Xbit_r2_c6
*+ bl_0_6 br_0_6 wl_0_2 vdd gnd
*+ cell_1rw
* Xbit_r3_c6
*+ bl_0_6 br_0_6 wl_0_3 vdd gnd
*+ cell_1rw
* Xbit_r4_c6
*+ bl_0_6 br_0_6 wl_0_4 vdd gnd
*+ cell_1rw
* Xbit_r5_c6
*+ bl_0_6 br_0_6 wl_0_5 vdd gnd
*+ cell_1rw
* Xbit_r6_c6
*+ bl_0_6 br_0_6 wl_0_6 vdd gnd
*+ cell_1rw
* Xbit_r7_c6
*+ bl_0_6 br_0_6 wl_0_7 vdd gnd
*+ cell_1rw
* Xbit_r8_c6
*+ bl_0_6 br_0_6 wl_0_8 vdd gnd
*+ cell_1rw
* Xbit_r9_c6
*+ bl_0_6 br_0_6 wl_0_9 vdd gnd
*+ cell_1rw
* Xbit_r10_c6
*+ bl_0_6 br_0_6 wl_0_10 vdd gnd
*+ cell_1rw
* Xbit_r11_c6
*+ bl_0_6 br_0_6 wl_0_11 vdd gnd
*+ cell_1rw
* Xbit_r12_c6
*+ bl_0_6 br_0_6 wl_0_12 vdd gnd
*+ cell_1rw
* Xbit_r13_c6
*+ bl_0_6 br_0_6 wl_0_13 vdd gnd
*+ cell_1rw
* Xbit_r14_c6
*+ bl_0_6 br_0_6 wl_0_14 vdd gnd
*+ cell_1rw
Xbit_r15_c6
+ bl_0_6 br_0_6 wl_0_15 vdd gnd
+ cell_1rw
Xbit_r0_c7
+ bl_0_7 br_0_7 wl_0_0 vdd gnd
+ cell_1rw
Xbit_r1_c7
+ bl_0_7 br_0_7 wl_0_1 vdd gnd
+ cell_1rw
Xbit_r2_c7
+ bl_0_7 br_0_7 wl_0_2 vdd gnd
+ cell_1rw
Xbit_r3_c7
+ bl_0_7 br_0_7 wl_0_3 vdd gnd
+ cell_1rw
Xbit_r4_c7
+ bl_0_7 br_0_7 wl_0_4 vdd gnd
+ cell_1rw
Xbit_r5_c7
+ bl_0_7 br_0_7 wl_0_5 vdd gnd
+ cell_1rw
Xbit_r6_c7
+ bl_0_7 br_0_7 wl_0_6 vdd gnd
+ cell_1rw
Xbit_r7_c7
+ bl_0_7 br_0_7 wl_0_7 vdd gnd
+ cell_1rw
Xbit_r8_c7
+ bl_0_7 br_0_7 wl_0_8 vdd gnd
+ cell_1rw
Xbit_r9_c7
+ bl_0_7 br_0_7 wl_0_9 vdd gnd
+ cell_1rw
Xbit_r10_c7
+ bl_0_7 br_0_7 wl_0_10 vdd gnd
+ cell_1rw
Xbit_r11_c7
+ bl_0_7 br_0_7 wl_0_11 vdd gnd
+ cell_1rw
Xbit_r12_c7
+ bl_0_7 br_0_7 wl_0_12 vdd gnd
+ cell_1rw
Xbit_r13_c7
+ bl_0_7 br_0_7 wl_0_13 vdd gnd
+ cell_1rw
Xbit_r14_c7
+ bl_0_7 br_0_7 wl_0_14 vdd gnd
+ cell_1rw
Xbit_r15_c7
+ bl_0_7 br_0_7 wl_0_15 vdd gnd
+ cell_1rw
.ENDS RAM_Mem_bitcell_array

.SUBCKT RAM_Mem_dummy_array
+ bl_0_0 br_0_0 bl_0_1 br_0_1 bl_0_2 br_0_2 bl_0_3 br_0_3 bl_0_4 br_0_4
+ bl_0_5 br_0_5 bl_0_6 br_0_6 bl_0_7 br_0_7 wl_0_0 vdd gnd
* INOUT : bl_0_0 
* INOUT : br_0_0 
* INOUT : bl_0_1 
* INOUT : br_0_1 
* INOUT : bl_0_2 
* INOUT : br_0_2 
* INOUT : bl_0_3 
* INOUT : br_0_3 
* INOUT : bl_0_4 
* INOUT : br_0_4 
* INOUT : bl_0_5 
* INOUT : br_0_5 
* INOUT : bl_0_6 
* INOUT : br_0_6 
* INOUT : bl_0_7 
* INOUT : br_0_7 
* INPUT : wl_0_0 
* POWER : vdd 
* GROUND: gnd 
Xbit_r0_c0
+ bl_0_0 br_0_0 wl_0_0 vdd gnd
+ dummy_cell_1rw
Xbit_r0_c1
+ bl_0_1 br_0_1 wl_0_0 vdd gnd
+ dummy_cell_1rw
Xbit_r0_c2
+ bl_0_2 br_0_2 wl_0_0 vdd gnd
+ dummy_cell_1rw
Xbit_r0_c3
+ bl_0_3 br_0_3 wl_0_0 vdd gnd
+ dummy_cell_1rw
Xbit_r0_c4
+ bl_0_4 br_0_4 wl_0_0 vdd gnd
+ dummy_cell_1rw
Xbit_r0_c5
+ bl_0_5 br_0_5 wl_0_0 vdd gnd
+ dummy_cell_1rw
Xbit_r0_c6
+ bl_0_6 br_0_6 wl_0_0 vdd gnd
+ dummy_cell_1rw
Xbit_r0_c7
+ bl_0_7 br_0_7 wl_0_0 vdd gnd
+ dummy_cell_1rw
.ENDS RAM_Mem_dummy_array

*********************** "cell_1rw" ******************************
.SUBCKT replica_cell_1rw bl br wl vdd gnd
* SPICE3 file created from cell_1rw.ext - technology: scmos

* Inverter 1
M1000 Q vdd vdd vdd p w=0.6u l=0.8u
M1002 Q vdd gnd gnd n w=1.6u l=0.4u

* Inverter 2
M1001 vdd Q vdd vdd p w=0.6u l=0.8u
M1003 gnd Q vdd gnd n w=1.6u l=0.4u

* Access transistors
M1004 Q wl bl gnd n w=0.8u l=0.4u
M1005 vdd wl br gnd n w=0.8u l=0.4u

.ENDS

.SUBCKT RAM_Mem_replica_column
+ bl_0_0 br_0_0 wl_0_0 wl_0_1 wl_0_2 wl_0_3 wl_0_4 wl_0_5 wl_0_6 wl_0_7
+ wl_0_8 wl_0_9 wl_0_10 wl_0_11 wl_0_12 wl_0_13 wl_0_14 wl_0_15 wl_0_16
+ vdd gnd
* OUTPUT: bl_0_0 
* OUTPUT: br_0_0 
* INPUT : wl_0_0 
* INPUT : wl_0_1 
* INPUT : wl_0_2 
* INPUT : wl_0_3 
* INPUT : wl_0_4 
* INPUT : wl_0_5 
* INPUT : wl_0_6 
* INPUT : wl_0_7 
* INPUT : wl_0_8 
* INPUT : wl_0_9 
* INPUT : wl_0_10 
* INPUT : wl_0_11 
* INPUT : wl_0_12 
* INPUT : wl_0_13 
* INPUT : wl_0_14 
* INPUT : wl_0_15 
* INPUT : wl_0_16 
* POWER : vdd 
* GROUND: gnd 
Xrbc_0
+ bl_0_0 br_0_0 wl_0_0 vdd gnd
+ replica_cell_1rw
Xrbc_1
+ bl_0_0 br_0_0 wl_0_1 vdd gnd
+ replica_cell_1rw
Xrbc_2
+ bl_0_0 br_0_0 wl_0_2 vdd gnd
+ replica_cell_1rw
Xrbc_3
+ bl_0_0 br_0_0 wl_0_3 vdd gnd
+ replica_cell_1rw
Xrbc_4
+ bl_0_0 br_0_0 wl_0_4 vdd gnd
+ replica_cell_1rw
Xrbc_5
+ bl_0_0 br_0_0 wl_0_5 vdd gnd
+ replica_cell_1rw
Xrbc_6
+ bl_0_0 br_0_0 wl_0_6 vdd gnd
+ replica_cell_1rw
Xrbc_7
+ bl_0_0 br_0_0 wl_0_7 vdd gnd
+ replica_cell_1rw
Xrbc_8
+ bl_0_0 br_0_0 wl_0_8 vdd gnd
+ replica_cell_1rw
Xrbc_9
+ bl_0_0 br_0_0 wl_0_9 vdd gnd
+ replica_cell_1rw
Xrbc_10
+ bl_0_0 br_0_0 wl_0_10 vdd gnd
+ replica_cell_1rw
Xrbc_11
+ bl_0_0 br_0_0 wl_0_11 vdd gnd
+ replica_cell_1rw
Xrbc_12
+ bl_0_0 br_0_0 wl_0_12 vdd gnd
+ replica_cell_1rw
Xrbc_13
+ bl_0_0 br_0_0 wl_0_13 vdd gnd
+ replica_cell_1rw
Xrbc_14
+ bl_0_0 br_0_0 wl_0_14 vdd gnd
+ replica_cell_1rw
Xrbc_15
+ bl_0_0 br_0_0 wl_0_15 vdd gnd
+ replica_cell_1rw
Xrbc_16
+ bl_0_0 br_0_0 wl_0_16 vdd gnd
+ replica_cell_1rw
.ENDS RAM_Mem_replica_column

.SUBCKT RAM_Mem_replica_bitcell_array
+ rbl_bl_0_0 rbl_br_0_0 bl_0_0 br_0_0 bl_0_1 br_0_1 bl_0_2 br_0_2 bl_0_3
+ br_0_3 bl_0_4 br_0_4 bl_0_5 br_0_5 bl_0_6 br_0_6 bl_0_7 br_0_7
+ rbl_wl_0_0 wl_0_0 wl_0_1 wl_0_2 wl_0_3 wl_0_4 wl_0_5 wl_0_6 wl_0_7
+ wl_0_8 wl_0_9 wl_0_10 wl_0_11 wl_0_12 wl_0_13 wl_0_14 wl_0_15 vdd gnd
* INOUT : rbl_bl_0_0 
* INOUT : rbl_br_0_0 
* INOUT : bl_0_0 
* INOUT : br_0_0 
* INOUT : bl_0_1 
* INOUT : br_0_1 
* INOUT : bl_0_2 
* INOUT : br_0_2 
* INOUT : bl_0_3 
* INOUT : br_0_3 
* INOUT : bl_0_4 
* INOUT : br_0_4 
* INOUT : bl_0_5 
* INOUT : br_0_5 
* INOUT : bl_0_6 
* INOUT : br_0_6 
* INOUT : bl_0_7 
* INOUT : br_0_7 
* INPUT : rbl_wl_0_0 
* INPUT : wl_0_0 
* INPUT : wl_0_1 
* INPUT : wl_0_2 
* INPUT : wl_0_3 
* INPUT : wl_0_4 
* INPUT : wl_0_5 
* INPUT : wl_0_6 
* INPUT : wl_0_7 
* INPUT : wl_0_8 
* INPUT : wl_0_9 
* INPUT : wl_0_10 
* INPUT : wl_0_11 
* INPUT : wl_0_12 
* INPUT : wl_0_13 
* INPUT : wl_0_14 
* INPUT : wl_0_15 
* POWER : vdd 
* GROUND: gnd 
* rows: 16 cols: 8
* rbl: [1, 0] left_rbl: [0] right_rbl: []
Xbitcell_array
+ bl_0_0 br_0_0 bl_0_1 br_0_1 bl_0_2 br_0_2 bl_0_3 br_0_3 bl_0_4 br_0_4
+ bl_0_5 br_0_5 bl_0_6 br_0_6 bl_0_7 br_0_7 wl_0_0 wl_0_1 wl_0_2 wl_0_3
+ wl_0_4 wl_0_5 wl_0_6 wl_0_7 wl_0_8 wl_0_9 wl_0_10 wl_0_11 wl_0_12
+ wl_0_13 wl_0_14 wl_0_15 vdd gnd
+ RAM_Mem_bitcell_array
Xreplica_col_0
+ rbl_bl_0_0 rbl_br_0_0 rbl_wl_0_0 wl_0_0 wl_0_1 wl_0_2 wl_0_3 wl_0_4
+ wl_0_5 wl_0_6 wl_0_7 wl_0_8 wl_0_9 wl_0_10 wl_0_11 wl_0_12 wl_0_13
+ wl_0_14 wl_0_15 vdd gnd
+ RAM_Mem_replica_column
Xdummy_row_0
+ bl_0_0 br_0_0 bl_0_1 br_0_1 bl_0_2 br_0_2 bl_0_3 br_0_3 bl_0_4 br_0_4
+ bl_0_5 br_0_5 bl_0_6 br_0_6 bl_0_7 br_0_7 rbl_wl_0_0 vdd gnd
+ RAM_Mem_dummy_array
.ENDS RAM_Mem_replica_bitcell_array

.SUBCKT RAM_Mem_dummy_array_2
+ bl_0_0 br_0_0 wl_0_0 wl_0_1 wl_0_2 wl_0_3 wl_0_4 wl_0_5 wl_0_6 wl_0_7
+ wl_0_8 wl_0_9 wl_0_10 wl_0_11 wl_0_12 wl_0_13 wl_0_14 wl_0_15 wl_0_16
+ wl_0_17 wl_0_18 vdd gnd
* INOUT : bl_0_0 
* INOUT : br_0_0 
* INPUT : wl_0_0 
* INPUT : wl_0_1 
* INPUT : wl_0_2 
* INPUT : wl_0_3 
* INPUT : wl_0_4 
* INPUT : wl_0_5 
* INPUT : wl_0_6 
* INPUT : wl_0_7 
* INPUT : wl_0_8 
* INPUT : wl_0_9 
* INPUT : wl_0_10 
* INPUT : wl_0_11 
* INPUT : wl_0_12 
* INPUT : wl_0_13 
* INPUT : wl_0_14 
* INPUT : wl_0_15 
* INPUT : wl_0_16 
* INPUT : wl_0_17 
* INPUT : wl_0_18 
* POWER : vdd 
* GROUND: gnd 
Xbit_r0_c0
+ bl_0_0 br_0_0 wl_0_0 vdd gnd
+ dummy_cell_1rw
Xbit_r1_c0
+ bl_0_0 br_0_0 wl_0_1 vdd gnd
+ dummy_cell_1rw
Xbit_r2_c0
+ bl_0_0 br_0_0 wl_0_2 vdd gnd
+ dummy_cell_1rw
Xbit_r3_c0
+ bl_0_0 br_0_0 wl_0_3 vdd gnd
+ dummy_cell_1rw
Xbit_r4_c0
+ bl_0_0 br_0_0 wl_0_4 vdd gnd
+ dummy_cell_1rw
Xbit_r5_c0
+ bl_0_0 br_0_0 wl_0_5 vdd gnd
+ dummy_cell_1rw
Xbit_r6_c0
+ bl_0_0 br_0_0 wl_0_6 vdd gnd
+ dummy_cell_1rw
Xbit_r7_c0
+ bl_0_0 br_0_0 wl_0_7 vdd gnd
+ dummy_cell_1rw
Xbit_r8_c0
+ bl_0_0 br_0_0 wl_0_8 vdd gnd
+ dummy_cell_1rw
Xbit_r9_c0
+ bl_0_0 br_0_0 wl_0_9 vdd gnd
+ dummy_cell_1rw
Xbit_r10_c0
+ bl_0_0 br_0_0 wl_0_10 vdd gnd
+ dummy_cell_1rw
Xbit_r11_c0
+ bl_0_0 br_0_0 wl_0_11 vdd gnd
+ dummy_cell_1rw
Xbit_r12_c0
+ bl_0_0 br_0_0 wl_0_12 vdd gnd
+ dummy_cell_1rw
Xbit_r13_c0
+ bl_0_0 br_0_0 wl_0_13 vdd gnd
+ dummy_cell_1rw
Xbit_r14_c0
+ bl_0_0 br_0_0 wl_0_14 vdd gnd
+ dummy_cell_1rw
Xbit_r15_c0
+ bl_0_0 br_0_0 wl_0_15 vdd gnd
+ dummy_cell_1rw
Xbit_r16_c0
+ bl_0_0 br_0_0 wl_0_16 vdd gnd
+ dummy_cell_1rw
Xbit_r17_c0
+ bl_0_0 br_0_0 wl_0_17 vdd gnd
+ dummy_cell_1rw
Xbit_r18_c0
+ bl_0_0 br_0_0 wl_0_18 vdd gnd
+ dummy_cell_1rw
.ENDS RAM_Mem_dummy_array_2

.SUBCKT RAM_Mem_dummy_array_0
+ bl_0_0 br_0_0 bl_0_1 br_0_1 bl_0_2 br_0_2 bl_0_3 br_0_3 bl_0_4 br_0_4
+ bl_0_5 br_0_5 bl_0_6 br_0_6 bl_0_7 br_0_7 bl_0_8 br_0_8 wl_0_0 vdd gnd
* INOUT : bl_0_0 
* INOUT : br_0_0 
* INOUT : bl_0_1 
* INOUT : br_0_1 
* INOUT : bl_0_2 
* INOUT : br_0_2 
* INOUT : bl_0_3 
* INOUT : br_0_3 
* INOUT : bl_0_4 
* INOUT : br_0_4 
* INOUT : bl_0_5 
* INOUT : br_0_5 
* INOUT : bl_0_6 
* INOUT : br_0_6 
* INOUT : bl_0_7 
* INOUT : br_0_7 
* INOUT : bl_0_8 
* INOUT : br_0_8 
* INPUT : wl_0_0 
* POWER : vdd 
* GROUND: gnd 
Xbit_r0_c0
+ bl_0_0 br_0_0 wl_0_0 vdd gnd
+ dummy_cell_1rw
Xbit_r0_c1
+ bl_0_1 br_0_1 wl_0_0 vdd gnd
+ dummy_cell_1rw
Xbit_r0_c2
+ bl_0_2 br_0_2 wl_0_0 vdd gnd
+ dummy_cell_1rw
Xbit_r0_c3
+ bl_0_3 br_0_3 wl_0_0 vdd gnd
+ dummy_cell_1rw
Xbit_r0_c4
+ bl_0_4 br_0_4 wl_0_0 vdd gnd
+ dummy_cell_1rw
Xbit_r0_c5
+ bl_0_5 br_0_5 wl_0_0 vdd gnd
+ dummy_cell_1rw
Xbit_r0_c6
+ bl_0_6 br_0_6 wl_0_0 vdd gnd
+ dummy_cell_1rw
Xbit_r0_c7
+ bl_0_7 br_0_7 wl_0_0 vdd gnd
+ dummy_cell_1rw
Xbit_r0_c8
+ bl_0_8 br_0_8 wl_0_0 vdd gnd
+ dummy_cell_1rw
.ENDS RAM_Mem_dummy_array_0

.SUBCKT RAM_Mem_dummy_array_3
+ bl_0_0 br_0_0 wl_0_0 wl_0_1 wl_0_2 wl_0_3 wl_0_4 wl_0_5 wl_0_6 wl_0_7
+ wl_0_8 wl_0_9 wl_0_10 wl_0_11 wl_0_12 wl_0_13 wl_0_14 wl_0_15 wl_0_16
+ wl_0_17 wl_0_18 vdd gnd
* INOUT : bl_0_0 
* INOUT : br_0_0 
* INPUT : wl_0_0 
* INPUT : wl_0_1 
* INPUT : wl_0_2 
* INPUT : wl_0_3 
* INPUT : wl_0_4 
* INPUT : wl_0_5 
* INPUT : wl_0_6 
* INPUT : wl_0_7 
* INPUT : wl_0_8 
* INPUT : wl_0_9 
* INPUT : wl_0_10 
* INPUT : wl_0_11 
* INPUT : wl_0_12 
* INPUT : wl_0_13 
* INPUT : wl_0_14 
* INPUT : wl_0_15 
* INPUT : wl_0_16 
* INPUT : wl_0_17 
* INPUT : wl_0_18 
* POWER : vdd 
* GROUND: gnd 
Xbit_r0_c0
+ bl_0_0 br_0_0 wl_0_0 vdd gnd
+ dummy_cell_1rw
Xbit_r1_c0
+ bl_0_0 br_0_0 wl_0_1 vdd gnd
+ dummy_cell_1rw
Xbit_r2_c0
+ bl_0_0 br_0_0 wl_0_2 vdd gnd
+ dummy_cell_1rw
Xbit_r3_c0
+ bl_0_0 br_0_0 wl_0_3 vdd gnd
+ dummy_cell_1rw
Xbit_r4_c0
+ bl_0_0 br_0_0 wl_0_4 vdd gnd
+ dummy_cell_1rw
Xbit_r5_c0
+ bl_0_0 br_0_0 wl_0_5 vdd gnd
+ dummy_cell_1rw
Xbit_r6_c0
+ bl_0_0 br_0_0 wl_0_6 vdd gnd
+ dummy_cell_1rw
Xbit_r7_c0
+ bl_0_0 br_0_0 wl_0_7 vdd gnd
+ dummy_cell_1rw
Xbit_r8_c0
+ bl_0_0 br_0_0 wl_0_8 vdd gnd
+ dummy_cell_1rw
Xbit_r9_c0
+ bl_0_0 br_0_0 wl_0_9 vdd gnd
+ dummy_cell_1rw
Xbit_r10_c0
+ bl_0_0 br_0_0 wl_0_10 vdd gnd
+ dummy_cell_1rw
Xbit_r11_c0
+ bl_0_0 br_0_0 wl_0_11 vdd gnd
+ dummy_cell_1rw
Xbit_r12_c0
+ bl_0_0 br_0_0 wl_0_12 vdd gnd
+ dummy_cell_1rw
Xbit_r13_c0
+ bl_0_0 br_0_0 wl_0_13 vdd gnd
+ dummy_cell_1rw
Xbit_r14_c0
+ bl_0_0 br_0_0 wl_0_14 vdd gnd
+ dummy_cell_1rw
Xbit_r15_c0
+ bl_0_0 br_0_0 wl_0_15 vdd gnd
+ dummy_cell_1rw
Xbit_r16_c0
+ bl_0_0 br_0_0 wl_0_16 vdd gnd
+ dummy_cell_1rw
Xbit_r17_c0
+ bl_0_0 br_0_0 wl_0_17 vdd gnd
+ dummy_cell_1rw
Xbit_r18_c0
+ bl_0_0 br_0_0 wl_0_18 vdd gnd
+ dummy_cell_1rw
.ENDS RAM_Mem_dummy_array_3

.SUBCKT RAM_Mem_capped_replica_bitcell_array
+ rbl_bl_0_0 rbl_br_0_0 bl_0_0 br_0_0 bl_0_1 br_0_1 bl_0_2 br_0_2 bl_0_3
+ br_0_3 bl_0_4 br_0_4 bl_0_5 br_0_5 bl_0_6 br_0_6 bl_0_7 br_0_7
+ rbl_wl_0_0 wl_0_0 wl_0_1 wl_0_2 wl_0_3 wl_0_4 wl_0_5 wl_0_6 wl_0_7
+ wl_0_8 wl_0_9 wl_0_10 wl_0_11 wl_0_12 wl_0_13 wl_0_14 wl_0_15 vdd gnd
* INOUT : rbl_bl_0_0 
* INOUT : rbl_br_0_0 
* INOUT : bl_0_0 
* INOUT : br_0_0 
* INOUT : bl_0_1 
* INOUT : br_0_1 
* INOUT : bl_0_2 
* INOUT : br_0_2 
* INOUT : bl_0_3 
* INOUT : br_0_3 
* INOUT : bl_0_4 
* INOUT : br_0_4 
* INOUT : bl_0_5 
* INOUT : br_0_5 
* INOUT : bl_0_6 
* INOUT : br_0_6 
* INOUT : bl_0_7 
* INOUT : br_0_7 
* INPUT : rbl_wl_0_0 
* INPUT : wl_0_0 
* INPUT : wl_0_1 
* INPUT : wl_0_2 
* INPUT : wl_0_3 
* INPUT : wl_0_4 
* INPUT : wl_0_5 
* INPUT : wl_0_6 
* INPUT : wl_0_7 
* INPUT : wl_0_8 
* INPUT : wl_0_9 
* INPUT : wl_0_10 
* INPUT : wl_0_11 
* INPUT : wl_0_12 
* INPUT : wl_0_13 
* INPUT : wl_0_14 
* INPUT : wl_0_15 
* POWER : vdd 
* GROUND: gnd 
* rows: 16 cols: 8
* rbl: [1, 0] left_rbl: [0] right_rbl: []
Xreplica_bitcell_array
+ rbl_bl_0_0 rbl_br_0_0 bl_0_0 br_0_0 bl_0_1 br_0_1 bl_0_2 br_0_2 bl_0_3
+ br_0_3 bl_0_4 br_0_4 bl_0_5 br_0_5 bl_0_6 br_0_6 bl_0_7 br_0_7
+ rbl_wl_0_0 wl_0_0 wl_0_1 wl_0_2 wl_0_3 wl_0_4 wl_0_5 wl_0_6 wl_0_7
+ wl_0_8 wl_0_9 wl_0_10 wl_0_11 wl_0_12 wl_0_13 wl_0_14 wl_0_15 vdd gnd
+ RAM_Mem_replica_bitcell_array
Xdummy_row_bot
+ rbl_bl_0_0 rbl_br_0_0 bl_0_0 br_0_0 bl_0_1 br_0_1 bl_0_2 br_0_2 bl_0_3
+ br_0_3 bl_0_4 br_0_4 bl_0_5 br_0_5 bl_0_6 br_0_6 bl_0_7 br_0_7 gnd vdd
+ gnd
+ RAM_Mem_dummy_array_1
Xdummy_row_top
+ rbl_bl_0_0 rbl_br_0_0 bl_0_0 br_0_0 bl_0_1 br_0_1 bl_0_2 br_0_2 bl_0_3
+ br_0_3 bl_0_4 br_0_4 bl_0_5 br_0_5 bl_0_6 br_0_6 bl_0_7 br_0_7 gnd vdd
+ gnd
+ RAM_Mem_dummy_array_0
Xdummy_col_left
+ dummy_left_bl_0_0 dummy_left_br_0_0 gnd rbl_wl_0_0 wl_0_0 wl_0_1
+ wl_0_2 wl_0_3 wl_0_4 wl_0_5 wl_0_6 wl_0_7 wl_0_8 wl_0_9 wl_0_10
+ wl_0_11 wl_0_12 wl_0_13 wl_0_14 wl_0_15 gnd vdd gnd
+ RAM_Mem_dummy_array_2
Xdummy_col_right
+ dummy_right_bl_0_0 dummy_right_br_0_0 gnd rbl_wl_0_0 wl_0_0 wl_0_1
+ wl_0_2 wl_0_3 wl_0_4 wl_0_5 wl_0_6 wl_0_7 wl_0_8 wl_0_9 wl_0_10
+ wl_0_11 wl_0_12 wl_0_13 wl_0_14 wl_0_15 gnd vdd gnd
+ RAM_Mem_dummy_array_3
.ENDS RAM_Mem_capped_replica_bitcell_array

* spice ptx M{0} {1} n m=1 w=1.6u l=0.4u pd=4.00u ps=4.00u as=1.60p ad=1.60p

* spice ptx M{0} {1} p m=1 w=3.2u l=0.4u pd=7.20u ps=7.20u as=3.20p ad=3.20p

.SUBCKT RAM_Mem_pinv_0
+ A Z vdd gnd
* INPUT : A 
* OUTPUT: Z 
* POWER : vdd 
* GROUND: gnd 
* size: 2
Mpinv_pmos Z A vdd vdd p m=1 w=3.2u l=0.4u pd=7.20u ps=7.20u as=3.20p ad=3.20p
Mpinv_nmos Z A gnd gnd n m=1 w=1.6u l=0.4u pd=4.00u ps=4.00u as=1.60p ad=1.60p
.ENDS RAM_Mem_pinv_0

* spice ptx M{0} {1} n m=1 w=1.6u l=0.4u pd=4.00u ps=4.00u as=1.60p ad=1.60p

* spice ptx M{0} {1} n m=1 w=1.6u l=0.4u pd=4.00u ps=4.00u as=1.60p ad=1.60p

.SUBCKT RAM_Mem_pnand2
+ A B Z vdd gnd
* INPUT : A 
* INPUT : B 
* OUTPUT: Z 
* POWER : vdd 
* GROUND: gnd 